Version 4
SHEET 1 880 680
WIRE 608 80 464 80
WIRE 144 144 80 144
WIRE 608 144 608 80
WIRE 608 144 576 144
WIRE 256 160 240 160
WIRE 336 160 336 112
WIRE 336 160 256 160
WIRE 416 160 416 112
WIRE 464 160 464 80
WIRE 464 160 416 160
WIRE 480 160 464 160
WIRE 144 176 128 176
WIRE 640 176 576 176
WIRE 768 176 720 176
WIRE 128 224 128 176
WIRE 256 224 256 160
WIRE 256 224 128 224
WIRE 336 224 336 160
WIRE 352 224 336 224
WIRE 416 224 416 160
WIRE 80 320 80 144
WIRE 336 320 80 320
WIRE 768 320 768 176
WIRE 768 320 576 320
WIRE 176 400 48 400
WIRE 336 400 336 320
WIRE 336 400 256 400
WIRE 576 400 576 320
WIRE 784 400 576 400
WIRE 48 464 48 400
WIRE 784 464 784 400
WIRE 336 480 336 400
WIRE 576 480 576 400
WIRE 48 624 48 544
WIRE 192 624 48 624
WIRE 336 624 336 544
WIRE 336 624 192 624
WIRE 576 624 576 544
WIRE 576 624 336 624
WIRE 784 624 784 544
WIRE 784 624 576 624
FLAG 192 624 0
SYMBOL Draft2 192 160 R0
SYMATTR InstName X1
SYMBOL res 432 96 R90
WINDOW 0 0 56 VBottom 2
WINDOW 3 32 56 VTop 2
SYMATTR InstName R1
SYMATTR Value 20k
SYMBOL cap 416 208 R90
WINDOW 0 0 32 VBottom 2
WINDOW 3 32 32 VTop 2
SYMATTR InstName C1
SYMATTR Value 16p
SYMBOL Draft2 528 160 R180
SYMATTR InstName X2
SYMBOL res 736 160 R90
WINDOW 0 0 56 VBottom 2
WINDOW 3 32 56 VTop 2
SYMATTR InstName R2
SYMATTR Value 20k
SYMBOL res 272 384 R90
WINDOW 0 0 56 VBottom 2
WINDOW 3 32 56 VTop 2
SYMATTR InstName R3
SYMATTR Value 2k
SYMBOL res 800 560 R180
WINDOW 0 36 76 Left 2
WINDOW 3 36 40 Left 2
SYMATTR InstName R4
SYMATTR Value 2k
SYMBOL cap 320 480 R0
SYMATTR InstName C2
SYMATTR Value 0.8n
SYMBOL cap 560 480 R0
SYMATTR InstName C3
SYMATTR Value 0.8n
SYMBOL voltage 48 448 R0
WINDOW 123 24 124 Left 2
WINDOW 39 0 0 Left 0
SYMATTR Value2 AC 1
SYMATTR InstName V1
SYMATTR Value ""
TEXT 16 648 Left 2 !.ac dec 100 10 1meg
